* NGSPICE file created from ula.ext - technology: sky130A

* Black-box entry subcircuit for sky130_fd_sc_hd__fill_1 abstract view
.subckt sky130_fd_sc_hd__fill_1 VGND VNB VPB VPWR
.ends

* Black-box entry subcircuit for sky130_fd_sc_hd__tapvpwrvgnd_1 abstract view
.subckt sky130_fd_sc_hd__tapvpwrvgnd_1 VGND VPWR
.ends

* Black-box entry subcircuit for sky130_ef_sc_hd__decap_12 abstract view
.subckt sky130_ef_sc_hd__decap_12 VGND VNB VPB VPWR
.ends

* Black-box entry subcircuit for sky130_fd_sc_hd__nor2_1 abstract view
.subckt sky130_fd_sc_hd__nor2_1 A B VGND VNB VPB VPWR Y
.ends

* Black-box entry subcircuit for sky130_fd_sc_hd__decap_8 abstract view
.subckt sky130_fd_sc_hd__decap_8 VGND VNB VPB VPWR
.ends

* Black-box entry subcircuit for sky130_fd_sc_hd__nand2_1 abstract view
.subckt sky130_fd_sc_hd__nand2_1 A B VGND VNB VPB VPWR Y
.ends

* Black-box entry subcircuit for sky130_fd_sc_hd__o22a_1 abstract view
.subckt sky130_fd_sc_hd__o22a_1 A1 A2 B1 B2 VGND VNB VPB VPWR X
.ends

* Black-box entry subcircuit for sky130_fd_sc_hd__decap_4 abstract view
.subckt sky130_fd_sc_hd__decap_4 VGND VNB VPB VPWR
.ends

* Black-box entry subcircuit for sky130_fd_sc_hd__inv_2 abstract view
.subckt sky130_fd_sc_hd__inv_2 A VGND VNB VPB VPWR Y
.ends

* Black-box entry subcircuit for sky130_fd_sc_hd__or2_1 abstract view
.subckt sky130_fd_sc_hd__or2_1 A B VGND VNB VPB VPWR X
.ends

* Black-box entry subcircuit for sky130_fd_sc_hd__decap_6 abstract view
.subckt sky130_fd_sc_hd__decap_6 VGND VNB VPB VPWR
.ends

* Black-box entry subcircuit for sky130_fd_sc_hd__a221o_1 abstract view
.subckt sky130_fd_sc_hd__a221o_1 A1 A2 B1 B2 C1 VGND VNB VPB VPWR X
.ends

* Black-box entry subcircuit for sky130_fd_sc_hd__a21oi_1 abstract view
.subckt sky130_fd_sc_hd__a21oi_1 A1 A2 B1 VGND VNB VPB VPWR Y
.ends

* Black-box entry subcircuit for sky130_fd_sc_hd__fill_2 abstract view
.subckt sky130_fd_sc_hd__fill_2 VGND VNB VPB VPWR
.ends

* Black-box entry subcircuit for sky130_fd_sc_hd__clkbuf_1 abstract view
.subckt sky130_fd_sc_hd__clkbuf_1 A VGND VNB VPB VPWR X
.ends

* Black-box entry subcircuit for sky130_fd_sc_hd__nand3_1 abstract view
.subckt sky130_fd_sc_hd__nand3_1 A B C VGND VNB VPB VPWR Y
.ends

* Black-box entry subcircuit for sky130_fd_sc_hd__clkbuf_4 abstract view
.subckt sky130_fd_sc_hd__clkbuf_4 A VGND VNB VPB VPWR X
.ends

* Black-box entry subcircuit for sky130_fd_sc_hd__buf_2 abstract view
.subckt sky130_fd_sc_hd__buf_2 A VGND VNB VPB VPWR X
.ends

* Black-box entry subcircuit for sky130_fd_sc_hd__decap_3 abstract view
.subckt sky130_fd_sc_hd__decap_3 VGND VNB VPB VPWR
.ends

* Black-box entry subcircuit for sky130_fd_sc_hd__a31o_1 abstract view
.subckt sky130_fd_sc_hd__a31o_1 A1 A2 A3 B1 VGND VNB VPB VPWR X
.ends

* Black-box entry subcircuit for sky130_fd_sc_hd__a2bb2o_1 abstract view
.subckt sky130_fd_sc_hd__a2bb2o_1 A1_N A2_N B1 B2 VGND VNB VPB VPWR X
.ends

* Black-box entry subcircuit for sky130_fd_sc_hd__a21o_1 abstract view
.subckt sky130_fd_sc_hd__a21o_1 A1 A2 B1 VGND VNB VPB VPWR X
.ends

* Black-box entry subcircuit for sky130_fd_sc_hd__mux2_1 abstract view
.subckt sky130_fd_sc_hd__mux2_1 A0 A1 S VGND VNB VPB VPWR X
.ends

* Black-box entry subcircuit for sky130_fd_sc_hd__o2bb2a_1 abstract view
.subckt sky130_fd_sc_hd__o2bb2a_1 A1_N A2_N B1 B2 VGND VNB VPB VPWR X
.ends

* Black-box entry subcircuit for sky130_fd_sc_hd__o21ai_1 abstract view
.subckt sky130_fd_sc_hd__o21ai_1 A1 A2 B1 VGND VNB VPB VPWR Y
.ends

* Black-box entry subcircuit for sky130_fd_sc_hd__o21a_1 abstract view
.subckt sky130_fd_sc_hd__o21a_1 A1 A2 B1 VGND VNB VPB VPWR X
.ends

* Black-box entry subcircuit for sky130_fd_sc_hd__dfxtp_1 abstract view
.subckt sky130_fd_sc_hd__dfxtp_1 CLK D VGND VNB VPB VPWR Q
.ends

* Black-box entry subcircuit for sky130_fd_sc_hd__dlygate4sd3_1 abstract view
.subckt sky130_fd_sc_hd__dlygate4sd3_1 A VGND VNB VPB VPWR X
.ends

* Black-box entry subcircuit for sky130_fd_sc_hd__o221ai_1 abstract view
.subckt sky130_fd_sc_hd__o221ai_1 A1 A2 B1 B2 C1 VGND VNB VPB VPWR Y
.ends

* Black-box entry subcircuit for sky130_fd_sc_hd__buf_6 abstract view
.subckt sky130_fd_sc_hd__buf_6 A VGND VNB VPB VPWR X
.ends

* Black-box entry subcircuit for sky130_fd_sc_hd__o221a_1 abstract view
.subckt sky130_fd_sc_hd__o221a_1 A1 A2 B1 B2 C1 VGND VNB VPB VPWR X
.ends

* Black-box entry subcircuit for sky130_fd_sc_hd__o2111ai_2 abstract view
.subckt sky130_fd_sc_hd__o2111ai_2 A1 A2 B1 C1 D1 VGND VNB VPB VPWR Y
.ends

* Black-box entry subcircuit for sky130_fd_sc_hd__nand3_4 abstract view
.subckt sky130_fd_sc_hd__nand3_4 A B C VGND VNB VPB VPWR Y
.ends

* Black-box entry subcircuit for sky130_fd_sc_hd__a2111o_1 abstract view
.subckt sky130_fd_sc_hd__a2111o_1 A1 A2 B1 C1 D1 VGND VNB VPB VPWR X
.ends

* Black-box entry subcircuit for sky130_fd_sc_hd__and3_1 abstract view
.subckt sky130_fd_sc_hd__and3_1 A B C VGND VNB VPB VPWR X
.ends

* Black-box entry subcircuit for sky130_fd_sc_hd__dfxtp_2 abstract view
.subckt sky130_fd_sc_hd__dfxtp_2 CLK D VGND VNB VPB VPWR Q
.ends

* Black-box entry subcircuit for sky130_fd_sc_hd__o21ba_1 abstract view
.subckt sky130_fd_sc_hd__o21ba_1 A1 A2 B1_N VGND VNB VPB VPWR X
.ends

* Black-box entry subcircuit for sky130_fd_sc_hd__clkinvlp_2 abstract view
.subckt sky130_fd_sc_hd__clkinvlp_2 A VGND VNB VPB VPWR Y
.ends

* Black-box entry subcircuit for sky130_fd_sc_hd__clkbuf_16 abstract view
.subckt sky130_fd_sc_hd__clkbuf_16 A VGND VNB VPB VPWR X
.ends

* Black-box entry subcircuit for sky130_fd_sc_hd__or2_2 abstract view
.subckt sky130_fd_sc_hd__or2_2 A B VGND VNB VPB VPWR X
.ends

* Black-box entry subcircuit for sky130_fd_sc_hd__nand2_2 abstract view
.subckt sky130_fd_sc_hd__nand2_2 A B VGND VNB VPB VPWR Y
.ends

* Black-box entry subcircuit for sky130_fd_sc_hd__a211o_1 abstract view
.subckt sky130_fd_sc_hd__a211o_1 A1 A2 B1 C1 VGND VNB VPB VPWR X
.ends

* Black-box entry subcircuit for sky130_fd_sc_hd__o211ai_2 abstract view
.subckt sky130_fd_sc_hd__o211ai_2 A1 A2 B1 C1 VGND VNB VPB VPWR Y
.ends

* Black-box entry subcircuit for sky130_fd_sc_hd__buf_4 abstract view
.subckt sky130_fd_sc_hd__buf_4 A VGND VNB VPB VPWR X
.ends

* Black-box entry subcircuit for sky130_fd_sc_hd__nand2b_1 abstract view
.subckt sky130_fd_sc_hd__nand2b_1 A_N B VGND VNB VPB VPWR Y
.ends

* Black-box entry subcircuit for sky130_fd_sc_hd__or3_1 abstract view
.subckt sky130_fd_sc_hd__or3_1 A B C VGND VNB VPB VPWR X
.ends

* Black-box entry subcircuit for sky130_fd_sc_hd__clkbuf_2 abstract view
.subckt sky130_fd_sc_hd__clkbuf_2 A VGND VNB VPB VPWR X
.ends

* Black-box entry subcircuit for sky130_fd_sc_hd__and2_1 abstract view
.subckt sky130_fd_sc_hd__and2_1 A B VGND VNB VPB VPWR X
.ends

* Black-box entry subcircuit for sky130_fd_sc_hd__o2111ai_1 abstract view
.subckt sky130_fd_sc_hd__o2111ai_1 A1 A2 B1 C1 D1 VGND VNB VPB VPWR Y
.ends

* Black-box entry subcircuit for sky130_fd_sc_hd__a211oi_1 abstract view
.subckt sky130_fd_sc_hd__a211oi_1 A1 A2 B1 C1 VGND VNB VPB VPWR Y
.ends

* Black-box entry subcircuit for sky130_fd_sc_hd__o211ai_1 abstract view
.subckt sky130_fd_sc_hd__o211ai_1 A1 A2 B1 C1 VGND VNB VPB VPWR Y
.ends

* Black-box entry subcircuit for sky130_fd_sc_hd__o41a_1 abstract view
.subckt sky130_fd_sc_hd__o41a_1 A1 A2 A3 A4 B1 VGND VNB VPB VPWR X
.ends

* Black-box entry subcircuit for sky130_fd_sc_hd__xor2_1 abstract view
.subckt sky130_fd_sc_hd__xor2_1 A B VGND VNB VPB VPWR X
.ends

* Black-box entry subcircuit for sky130_fd_sc_hd__nor2_4 abstract view
.subckt sky130_fd_sc_hd__nor2_4 A B VGND VNB VPB VPWR Y
.ends

* Black-box entry subcircuit for sky130_fd_sc_hd__a21boi_1 abstract view
.subckt sky130_fd_sc_hd__a21boi_1 A1 A2 B1_N VGND VNB VPB VPWR Y
.ends

* Black-box entry subcircuit for sky130_fd_sc_hd__inv_4 abstract view
.subckt sky130_fd_sc_hd__inv_4 A VGND VNB VPB VPWR Y
.ends

* Black-box entry subcircuit for sky130_fd_sc_hd__o2111ai_4 abstract view
.subckt sky130_fd_sc_hd__o2111ai_4 A1 A2 B1 C1 D1 VGND VNB VPB VPWR Y
.ends

* Black-box entry subcircuit for sky130_fd_sc_hd__o221ai_2 abstract view
.subckt sky130_fd_sc_hd__o221ai_2 A1 A2 B1 B2 C1 VGND VNB VPB VPWR Y
.ends

* Black-box entry subcircuit for sky130_fd_sc_hd__o211a_1 abstract view
.subckt sky130_fd_sc_hd__o211a_1 A1 A2 B1 C1 VGND VNB VPB VPWR X
.ends

* Black-box entry subcircuit for sky130_fd_sc_hd__nand2_4 abstract view
.subckt sky130_fd_sc_hd__nand2_4 A B VGND VNB VPB VPWR Y
.ends

* Black-box entry subcircuit for sky130_fd_sc_hd__nand3_2 abstract view
.subckt sky130_fd_sc_hd__nand3_2 A B C VGND VNB VPB VPWR Y
.ends

* Black-box entry subcircuit for sky130_fd_sc_hd__o21ai_2 abstract view
.subckt sky130_fd_sc_hd__o21ai_2 A1 A2 B1 VGND VNB VPB VPWR Y
.ends

* Black-box entry subcircuit for sky130_fd_sc_hd__clkinv_4 abstract view
.subckt sky130_fd_sc_hd__clkinv_4 A VGND VNB VPB VPWR Y
.ends

* Black-box entry subcircuit for sky130_fd_sc_hd__and3_2 abstract view
.subckt sky130_fd_sc_hd__and3_2 A B C VGND VNB VPB VPWR X
.ends

* Black-box entry subcircuit for sky130_fd_sc_hd__and2_4 abstract view
.subckt sky130_fd_sc_hd__and2_4 A B VGND VNB VPB VPWR X
.ends

* Black-box entry subcircuit for sky130_fd_sc_hd__a31oi_1 abstract view
.subckt sky130_fd_sc_hd__a31oi_1 A1 A2 A3 B1 VGND VNB VPB VPWR Y
.ends

* Black-box entry subcircuit for sky130_fd_sc_hd__nand3b_1 abstract view
.subckt sky130_fd_sc_hd__nand3b_1 A_N B C VGND VNB VPB VPWR Y
.ends

* Black-box entry subcircuit for sky130_fd_sc_hd__a22o_1 abstract view
.subckt sky130_fd_sc_hd__a22o_1 A1 A2 B1 B2 VGND VNB VPB VPWR X
.ends

.subckt ula VGND VPWR clk data_in en_in op[0] op[1] op[2] result[0] result[10] result[11]
+ result[12] result[13] result[14] result[15] result[1] result[2] result[3] result[4]
+ result[5] result[6] result[7] result[8] result[9]
XFILLER_0_27_82 VGND VGND VPWR VPWR sky130_fd_sc_hd__fill_1
XTAP_177 VGND VPWR sky130_fd_sc_hd__tapvpwrvgnd_1
XTAP_188 VGND VPWR sky130_fd_sc_hd__tapvpwrvgnd_1
XTAP_199 VGND VPWR sky130_fd_sc_hd__tapvpwrvgnd_1
XFILLER_0_3_39 VGND VGND VPWR VPWR sky130_ef_sc_hd__decap_12
X_0985_ reg_data\[13\] _0448_ VGND VGND VPWR VPWR _0470_ sky130_fd_sc_hd__nor2_1
XFILLER_0_1_185 VGND VGND VPWR VPWR sky130_ef_sc_hd__decap_12
XFILLER_0_20_217 VGND VGND VPWR VPWR sky130_fd_sc_hd__fill_1
XFILLER_0_18_29 VGND VGND VPWR VPWR sky130_fd_sc_hd__decap_8
X_0770_ _0261_ _0262_ VGND VGND VPWR VPWR _0263_ sky130_fd_sc_hd__nand2_1
X_0968_ _0432_ _0421_ VGND VGND VPWR VPWR _0454_ sky130_fd_sc_hd__nand2_1
X_0899_ _0386_ _0145_ _0142_ _0379_ VGND VGND VPWR VPWR _0387_ sky130_fd_sc_hd__o22a_1
XFILLER_0_37_125 VGND VGND VPWR VPWR sky130_ef_sc_hd__decap_12
XFILLER_0_37_169 VGND VGND VPWR VPWR sky130_fd_sc_hd__decap_4
XFILLER_0_0_29 VGND VGND VPWR VPWR sky130_ef_sc_hd__decap_12
XFILLER_0_9_27 VGND VGND VPWR VPWR sky130_ef_sc_hd__decap_12
X_0822_ _0310_ _0311_ VGND VGND VPWR VPWR _0313_ sky130_fd_sc_hd__nand2_1
X_0684_ reg_data\[20\] VGND VGND VPWR VPWR _0179_ sky130_fd_sc_hd__inv_2
X_0753_ _0242_ _0245_ VGND VGND VPWR VPWR _0246_ sky130_fd_sc_hd__or2_1
XFILLER_0_3_214 VGND VGND VPWR VPWR sky130_fd_sc_hd__decap_4
XFILLER_0_10_52 VGND VGND VPWR VPWR sky130_fd_sc_hd__fill_1
XFILLER_0_10_85 VGND VGND VPWR VPWR sky130_fd_sc_hd__fill_1
XFILLER_0_10_96 VGND VGND VPWR VPWR sky130_fd_sc_hd__fill_1
XFILLER_0_19_169 VGND VGND VPWR VPWR sky130_ef_sc_hd__decap_12
XFILLER_0_18_180 VGND VGND VPWR VPWR sky130_fd_sc_hd__decap_6
XFILLER_0_0_217 VGND VGND VPWR VPWR sky130_fd_sc_hd__fill_1
X_1021_ _0111_ reg_data\[31\] _0193_ _0502_ _0504_ VGND VGND VPWR VPWR _0505_ sky130_fd_sc_hd__a221o_1
XFILLER_0_16_117 VGND VGND VPWR VPWR sky130_fd_sc_hd__decap_8
X_0805_ _0251_ _0295_ VGND VGND VPWR VPWR _0296_ sky130_fd_sc_hd__nor2_1
XFILLER_0_16_139 VGND VGND VPWR VPWR sky130_fd_sc_hd__fill_1
X_0736_ _0180_ reg_data\[20\] VGND VGND VPWR VPWR _0230_ sky130_fd_sc_hd__nand2_1
X_0667_ _0160_ _0162_ VGND VGND VPWR VPWR _0163_ sky130_fd_sc_hd__nor2_1
X_0598_ _0096_ reg_data\[16\] _0048_ VGND VGND VPWR VPWR _0097_ sky130_fd_sc_hd__a21oi_1
XFILLER_0_24_194 VGND VGND VPWR VPWR sky130_fd_sc_hd__fill_2
XFILLER_0_34_3 VGND VGND VPWR VPWR sky130_ef_sc_hd__decap_12
XFILLER_0_26_29 VGND VGND VPWR VPWR sky130_ef_sc_hd__decap_12
X_0521_ _0050_ VGND VGND VPWR VPWR _0001_ sky130_fd_sc_hd__clkbuf_1
XFILLER_0_21_164 VGND VGND VPWR VPWR sky130_fd_sc_hd__fill_1
X_1004_ _0487_ _0207_ _0488_ VGND VGND VPWR VPWR _0489_ sky130_fd_sc_hd__nand3_1
XFILLER_0_12_153 VGND VGND VPWR VPWR sky130_fd_sc_hd__decap_4
XFILLER_0_32_94 VGND VGND VPWR VPWR sky130_fd_sc_hd__decap_8
XFILLER_0_12_197 VGND VGND VPWR VPWR sky130_fd_sc_hd__fill_2
X_0719_ _0048_ VGND VGND VPWR VPWR _0214_ sky130_fd_sc_hd__clkbuf_4
Xoutput20 net20 VGND VGND VPWR VPWR result[8] sky130_fd_sc_hd__buf_2
Xoutput7 net7 VGND VGND VPWR VPWR result[10] sky130_fd_sc_hd__buf_2
XFILLER_0_5_128 VGND VGND VPWR VPWR sky130_ef_sc_hd__decap_12
XTAP_112 VGND VPWR sky130_fd_sc_hd__tapvpwrvgnd_1
XTAP_101 VGND VPWR sky130_fd_sc_hd__tapvpwrvgnd_1
XTAP_123 VGND VPWR sky130_fd_sc_hd__tapvpwrvgnd_1
XTAP_134 VGND VPWR sky130_fd_sc_hd__tapvpwrvgnd_1
XTAP_145 VGND VPWR sky130_fd_sc_hd__tapvpwrvgnd_1
XTAP_156 VGND VPWR sky130_fd_sc_hd__tapvpwrvgnd_1
XTAP_167 VGND VPWR sky130_fd_sc_hd__tapvpwrvgnd_1
XTAP_178 VGND VPWR sky130_fd_sc_hd__tapvpwrvgnd_1
XTAP_189 VGND VPWR sky130_fd_sc_hd__tapvpwrvgnd_1
XFILLER_0_13_41 VGND VGND VPWR VPWR sky130_ef_sc_hd__decap_12
X_0984_ _0413_ _0468_ VGND VGND VPWR VPWR _0469_ sky130_fd_sc_hd__nand2_1
XFILLER_0_1_164 VGND VGND VPWR VPWR sky130_fd_sc_hd__decap_4
XFILLER_0_1_197 VGND VGND VPWR VPWR sky130_ef_sc_hd__decap_12
XFILLER_0_34_29 VGND VGND VPWR VPWR sky130_ef_sc_hd__decap_12
X_0967_ _0452_ VGND VGND VPWR VPWR _0453_ sky130_fd_sc_hd__inv_2
X_0898_ reg_data\[27\] VGND VGND VPWR VPWR _0386_ sky130_fd_sc_hd__inv_2
XFILLER_0_4_83 VGND VGND VPWR VPWR sky130_fd_sc_hd__fill_1
XFILLER_0_37_137 VGND VGND VPWR VPWR sky130_fd_sc_hd__decap_3
XFILLER_0_28_104 VGND VGND VPWR VPWR sky130_fd_sc_hd__fill_2
XFILLER_0_9_39 VGND VGND VPWR VPWR sky130_ef_sc_hd__decap_12
X_0752_ _0189_ _0183_ _0228_ _0244_ VGND VGND VPWR VPWR _0245_ sky130_fd_sc_hd__a31o_1
X_0821_ _0311_ _0142_ reg_data\[24\] _0111_ VGND VGND VPWR VPWR _0312_ sky130_fd_sc_hd__a2bb2o_1
X_0683_ _0178_ VGND VGND VPWR VPWR _0035_ sky130_fd_sc_hd__clkbuf_1
XFILLER_0_10_64 VGND VGND VPWR VPWR sky130_fd_sc_hd__decap_8
XFILLER_0_33_195 VGND VGND VPWR VPWR sky130_fd_sc_hd__fill_1
X_1020_ _0503_ _0142_ VGND VGND VPWR VPWR _0504_ sky130_fd_sc_hd__nor2_1
X_0735_ _0228_ VGND VGND VPWR VPWR _0229_ sky130_fd_sc_hd__inv_2
X_0804_ _0294_ VGND VGND VPWR VPWR _0295_ sky130_fd_sc_hd__inv_2
XFILLER_0_21_96 VGND VGND VPWR VPWR sky130_ef_sc_hd__decap_12
X_0666_ _0161_ _0140_ VGND VGND VPWR VPWR _0162_ sky130_fd_sc_hd__nor2_1
X_0597_ _0085_ _0090_ _0095_ VGND VGND VPWR VPWR _0096_ sky130_fd_sc_hd__a21o_1
XFILLER_0_1_51 VGND VGND VPWR VPWR sky130_fd_sc_hd__decap_4
XFILLER_0_27_3 VGND VGND VPWR VPWR sky130_ef_sc_hd__decap_12
XFILLER_0_6_29 VGND VGND VPWR VPWR sky130_fd_sc_hd__decap_3
X_0520_ reg_data\[1\] reg_data\[0\] _0048_ VGND VGND VPWR VPWR _0050_ sky130_fd_sc_hd__mux2_1
XFILLER_0_21_132 VGND VGND VPWR VPWR sky130_fd_sc_hd__decap_8
XFILLER_0_16_85 VGND VGND VPWR VPWR sky130_ef_sc_hd__decap_12
X_1003_ _0486_ _0482_ VGND VGND VPWR VPWR _0488_ sky130_fd_sc_hd__nand2_1
X_0718_ _0210_ _0212_ VGND VGND VPWR VPWR _0213_ sky130_fd_sc_hd__nand2_1
X_0649_ _0112_ _0144_ _0134_ _0145_ VGND VGND VPWR VPWR _0146_ sky130_fd_sc_hd__o2bb2a_1
XFILLER_0_35_202 VGND VGND VPWR VPWR sky130_fd_sc_hd__fill_1
XFILLER_0_37_29 VGND VGND VPWR VPWR sky130_ef_sc_hd__decap_12
Xoutput21 net21 VGND VGND VPWR VPWR result[9] sky130_fd_sc_hd__buf_2
Xoutput8 net8 VGND VGND VPWR VPWR result[11] sky130_fd_sc_hd__buf_2
Xoutput10 net10 VGND VGND VPWR VPWR result[13] sky130_fd_sc_hd__buf_2
XTAP_113 VGND VPWR sky130_fd_sc_hd__tapvpwrvgnd_1
XTAP_102 VGND VPWR sky130_fd_sc_hd__tapvpwrvgnd_1
XTAP_124 VGND VPWR sky130_fd_sc_hd__tapvpwrvgnd_1
XTAP_135 VGND VPWR sky130_fd_sc_hd__tapvpwrvgnd_1
XTAP_146 VGND VPWR sky130_fd_sc_hd__tapvpwrvgnd_1
XTAP_157 VGND VPWR sky130_fd_sc_hd__tapvpwrvgnd_1
XTAP_168 VGND VPWR sky130_fd_sc_hd__tapvpwrvgnd_1
XFILLER_0_27_51 VGND VGND VPWR VPWR sky130_fd_sc_hd__decap_4
XTAP_179 VGND VPWR sky130_fd_sc_hd__tapvpwrvgnd_1
XFILLER_0_13_31 VGND VGND VPWR VPWR sky130_fd_sc_hd__fill_1
XFILLER_0_13_53 VGND VGND VPWR VPWR sky130_fd_sc_hd__decap_3
XFILLER_0_13_86 VGND VGND VPWR VPWR sky130_fd_sc_hd__fill_1
X_0983_ _0467_ VGND VGND VPWR VPWR _0468_ sky130_fd_sc_hd__inv_2
XFILLER_0_24_41 VGND VGND VPWR VPWR sky130_fd_sc_hd__decap_4
XFILLER_0_24_85 VGND VGND VPWR VPWR sky130_fd_sc_hd__decap_8
X_0897_ _0384_ _0173_ VGND VGND VPWR VPWR _0385_ sky130_fd_sc_hd__nand2_1
X_0966_ _0450_ _0451_ VGND VGND VPWR VPWR _0452_ sky130_fd_sc_hd__nand2_1
XFILLER_0_36_171 VGND VGND VPWR VPWR sky130_ef_sc_hd__decap_12
X_0751_ _0230_ _0229_ _0243_ VGND VGND VPWR VPWR _0244_ sky130_fd_sc_hd__o21ai_1
X_0820_ reg_data\[24\] reg_data\[8\] VGND VGND VPWR VPWR _0311_ sky130_fd_sc_hd__nand2_1
X_0682_ _0177_ net37 _0077_ VGND VGND VPWR VPWR _0178_ sky130_fd_sc_hd__mux2_1
X_0949_ _0048_ _0434_ _0435_ VGND VGND VPWR VPWR _0044_ sky130_fd_sc_hd__o21a_1
X_0734_ _0227_ _0225_ VGND VGND VPWR VPWR _0228_ sky130_fd_sc_hd__nand2_1
X_0665_ _0136_ VGND VGND VPWR VPWR _0161_ sky130_fd_sc_hd__inv_2
X_0803_ _0260_ _0286_ VGND VGND VPWR VPWR _0294_ sky130_fd_sc_hd__nor2_1
XFILLER_0_24_141 VGND VGND VPWR VPWR sky130_fd_sc_hd__fill_1
X_0596_ _0091_ _0092_ _0094_ VGND VGND VPWR VPWR _0095_ sky130_fd_sc_hd__o21ai_1
X_1079_ clknet_2_3__leaf_clk _0045_ VGND VGND VPWR VPWR net10 sky130_fd_sc_hd__dfxtp_1
Xhold10 net7 VGND VGND VPWR VPWR net31 sky130_fd_sc_hd__dlygate4sd3_1
XFILLER_0_21_199 VGND VGND VPWR VPWR sky130_fd_sc_hd__decap_3
XFILLER_0_16_97 VGND VGND VPWR VPWR sky130_fd_sc_hd__decap_4
X_1002_ _0482_ _0486_ VGND VGND VPWR VPWR _0487_ sky130_fd_sc_hd__or2_1
XFILLER_0_12_100 VGND VGND VPWR VPWR sky130_ef_sc_hd__decap_12
X_0648_ _0111_ VGND VGND VPWR VPWR _0145_ sky130_fd_sc_hd__inv_2
X_0717_ _0211_ VGND VGND VPWR VPWR _0212_ sky130_fd_sc_hd__buf_2
X_0579_ reg_data\[29\] reg_data\[28\] _0077_ VGND VGND VPWR VPWR _0081_ sky130_fd_sc_hd__mux2_1
XFILLER_0_9_3 VGND VGND VPWR VPWR sky130_ef_sc_hd__decap_12
Xoutput9 net9 VGND VGND VPWR VPWR result[12] sky130_fd_sc_hd__buf_2
Xoutput11 net11 VGND VGND VPWR VPWR result[14] sky130_fd_sc_hd__clkbuf_4
XTAP_103 VGND VPWR sky130_fd_sc_hd__tapvpwrvgnd_1
XTAP_114 VGND VPWR sky130_fd_sc_hd__tapvpwrvgnd_1
XTAP_125 VGND VPWR sky130_fd_sc_hd__tapvpwrvgnd_1
XTAP_136 VGND VPWR sky130_fd_sc_hd__tapvpwrvgnd_1
XTAP_147 VGND VPWR sky130_fd_sc_hd__tapvpwrvgnd_1
XTAP_158 VGND VPWR sky130_fd_sc_hd__tapvpwrvgnd_1
XTAP_169 VGND VPWR sky130_fd_sc_hd__tapvpwrvgnd_1
XFILLER_0_4_141 VGND VGND VPWR VPWR sky130_fd_sc_hd__decap_8
XFILLER_0_7_51 VGND VGND VPWR VPWR sky130_fd_sc_hd__decap_4
XFILLER_0_13_98 VGND VGND VPWR VPWR sky130_fd_sc_hd__decap_3
XFILLER_0_14_217 VGND VGND VPWR VPWR sky130_fd_sc_hd__fill_1
X_0982_ _0405_ _0439_ VGND VGND VPWR VPWR _0467_ sky130_fd_sc_hd__nand2_1
XFILLER_0_24_97 VGND VGND VPWR VPWR sky130_fd_sc_hd__decap_4
X_0896_ _0382_ _0381_ VGND VGND VPWR VPWR _0384_ sky130_fd_sc_hd__nand2_1
X_0965_ _0449_ _0448_ VGND VGND VPWR VPWR _0451_ sky130_fd_sc_hd__nand2_1
XFILLER_0_4_85 VGND VGND VPWR VPWR sky130_ef_sc_hd__decap_12
XFILLER_0_4_63 VGND VGND VPWR VPWR sky130_ef_sc_hd__decap_12
XFILLER_0_4_41 VGND VGND VPWR VPWR sky130_ef_sc_hd__decap_12
XFILLER_0_28_139 VGND VGND VPWR VPWR sky130_fd_sc_hd__fill_1
XFILLER_0_36_183 VGND VGND VPWR VPWR sky130_ef_sc_hd__decap_12
X_0750_ _0216_ reg_data\[21\] VGND VGND VPWR VPWR _0243_ sky130_fd_sc_hd__nand2_1
X_0681_ reg_data\[19\] _0130_ _0163_ _0164_ _0176_ VGND VGND VPWR VPWR _0177_ sky130_fd_sc_hd__o221ai_1
X_0948_ net33 _0211_ VGND VGND VPWR VPWR _0435_ sky130_fd_sc_hd__or2_1
X_0879_ _0342_ _0304_ VGND VGND VPWR VPWR _0368_ sky130_fd_sc_hd__nor2_1
XFILLER_0_0_209 VGND VGND VPWR VPWR sky130_fd_sc_hd__decap_8
XFILLER_0_25_109 VGND VGND VPWR VPWR sky130_fd_sc_hd__decap_3
XFILLER_0_33_164 VGND VGND VPWR VPWR sky130_fd_sc_hd__decap_4
X_0802_ _0292_ _0293_ VGND VGND VPWR VPWR _0039_ sky130_fd_sc_hd__nand2_1
X_0733_ _0226_ _0216_ VGND VGND VPWR VPWR _0227_ sky130_fd_sc_hd__nand2_1
X_0664_ _0158_ _0159_ VGND VGND VPWR VPWR _0160_ sky130_fd_sc_hd__nand2_1
X_0595_ _0093_ VGND VGND VPWR VPWR _0094_ sky130_fd_sc_hd__buf_6
XFILLER_0_1_75 VGND VGND VPWR VPWR sky130_fd_sc_hd__fill_1
X_1078_ clknet_2_3__leaf_clk _0044_ VGND VGND VPWR VPWR net9 sky130_fd_sc_hd__dfxtp_1
XFILLER_0_15_131 VGND VGND VPWR VPWR sky130_ef_sc_hd__decap_12
Xhold11 net20 VGND VGND VPWR VPWR net32 sky130_fd_sc_hd__dlygate4sd3_1
XFILLER_0_8_117 VGND VGND VPWR VPWR sky130_fd_sc_hd__fill_1
X_1001_ _0484_ _0485_ VGND VGND VPWR VPWR _0486_ sky130_fd_sc_hd__nand2_1
XFILLER_0_8_139 VGND VGND VPWR VPWR sky130_fd_sc_hd__fill_1
XFILLER_0_12_112 VGND VGND VPWR VPWR sky130_fd_sc_hd__decap_4
XFILLER_0_32_53 VGND VGND VPWR VPWR sky130_fd_sc_hd__fill_2
XFILLER_0_32_64 VGND VGND VPWR VPWR sky130_fd_sc_hd__fill_1
X_0647_ _0134_ _0131_ VGND VGND VPWR VPWR _0144_ sky130_fd_sc_hd__nand2_1
X_0716_ net2 VGND VGND VPWR VPWR _0211_ sky130_fd_sc_hd__inv_2
X_0578_ _0080_ VGND VGND VPWR VPWR _0028_ sky130_fd_sc_hd__clkbuf_1
XFILLER_0_32_3 VGND VGND VPWR VPWR sky130_ef_sc_hd__decap_12
Xoutput12 net12 VGND VGND VPWR VPWR result[15] sky130_fd_sc_hd__clkbuf_4
XTAP_104 VGND VPWR sky130_fd_sc_hd__tapvpwrvgnd_1
XTAP_115 VGND VPWR sky130_fd_sc_hd__tapvpwrvgnd_1
XTAP_126 VGND VPWR sky130_fd_sc_hd__tapvpwrvgnd_1
XTAP_137 VGND VPWR sky130_fd_sc_hd__tapvpwrvgnd_1
XTAP_148 VGND VPWR sky130_fd_sc_hd__tapvpwrvgnd_1
XTAP_159 VGND VPWR sky130_fd_sc_hd__tapvpwrvgnd_1
XFILLER_0_4_197 VGND VGND VPWR VPWR sky130_fd_sc_hd__fill_1
XFILLER_0_13_66 VGND VGND VPWR VPWR sky130_fd_sc_hd__fill_1
X_0981_ _0464_ _0465_ VGND VGND VPWR VPWR _0466_ sky130_fd_sc_hd__nand2_1
XFILLER_0_9_201 VGND VGND VPWR VPWR sky130_fd_sc_hd__fill_1
XFILLER_0_6_215 VGND VGND VPWR VPWR sky130_fd_sc_hd__decap_6
XFILLER_0_24_54 VGND VGND VPWR VPWR sky130_ef_sc_hd__decap_12
X_0964_ _0448_ _0449_ VGND VGND VPWR VPWR _0450_ sky130_fd_sc_hd__or2_1
X_0895_ _0381_ _0382_ VGND VGND VPWR VPWR _0383_ sky130_fd_sc_hd__nor2_1
XFILLER_0_4_75 VGND VGND VPWR VPWR sky130_fd_sc_hd__decap_8
XFILLER_0_4_53 VGND VGND VPWR VPWR sky130_fd_sc_hd__decap_6
XFILLER_0_36_195 VGND VGND VPWR VPWR sky130_fd_sc_hd__fill_1
X_0680_ _0142_ _0165_ _0171_ _0174_ _0175_ VGND VGND VPWR VPWR _0176_ sky130_fd_sc_hd__o221a_1
XFILLER_0_10_45 VGND VGND VPWR VPWR sky130_fd_sc_hd__decap_4
XFILLER_0_19_43 VGND VGND VPWR VPWR sky130_fd_sc_hd__fill_1
XFILLER_0_19_54 VGND VGND VPWR VPWR sky130_fd_sc_hd__fill_2
X_0947_ reg_data\[28\] _0130_ _0416_ _0419_ _0433_ VGND VGND VPWR VPWR _0434_ sky130_fd_sc_hd__o2111ai_2
X_0878_ _0366_ VGND VGND VPWR VPWR _0367_ sky130_fd_sc_hd__inv_2
XFILLER_0_33_110 VGND VGND VPWR VPWR sky130_fd_sc_hd__fill_2
XFILLER_0_33_132 VGND VGND VPWR VPWR sky130_fd_sc_hd__fill_1
X_0801_ _0214_ net26 VGND VGND VPWR VPWR _0293_ sky130_fd_sc_hd__nand2_1
XFILLER_0_21_55 VGND VGND VPWR VPWR sky130_fd_sc_hd__fill_1
XFILLER_0_24_121 VGND VGND VPWR VPWR sky130_fd_sc_hd__fill_1
X_0732_ reg_data\[21\] VGND VGND VPWR VPWR _0226_ sky130_fd_sc_hd__inv_2
X_0663_ _0155_ reg_data\[19\] _0094_ VGND VGND VPWR VPWR _0159_ sky130_fd_sc_hd__nand3_1
X_0594_ net5 net4 net3 VGND VGND VPWR VPWR _0093_ sky130_fd_sc_hd__nand3_4
X_1077_ clknet_2_3__leaf_clk _0043_ VGND VGND VPWR VPWR net8 sky130_fd_sc_hd__dfxtp_1
Xhold12 net9 VGND VGND VPWR VPWR net33 sky130_fd_sc_hd__dlygate4sd3_1
XFILLER_0_30_168 VGND VGND VPWR VPWR sky130_fd_sc_hd__decap_8
XFILLER_0_21_113 VGND VGND VPWR VPWR sky130_fd_sc_hd__decap_4
X_1000_ _0421_ _0452_ _0450_ VGND VGND VPWR VPWR _0485_ sky130_fd_sc_hd__o21a_1
X_0715_ _0179_ _0100_ _0192_ _0195_ _0209_ VGND VGND VPWR VPWR _0210_ sky130_fd_sc_hd__a2111o_1
X_0646_ reg_data\[18\] reg_data\[2\] VGND VGND VPWR VPWR _0143_ sky130_fd_sc_hd__nand2_1
X_0577_ reg_data\[28\] reg_data\[27\] _0077_ VGND VGND VPWR VPWR _0080_ sky130_fd_sc_hd__mux2_1
XFILLER_0_25_3 VGND VGND VPWR VPWR sky130_ef_sc_hd__decap_12
Xoutput13 net13 VGND VGND VPWR VPWR result[1] sky130_fd_sc_hd__buf_2
XFILLER_0_26_205 VGND VGND VPWR VPWR sky130_fd_sc_hd__fill_1
XTAP_105 VGND VPWR sky130_fd_sc_hd__tapvpwrvgnd_1
XTAP_116 VGND VPWR sky130_fd_sc_hd__tapvpwrvgnd_1
XTAP_127 VGND VPWR sky130_fd_sc_hd__tapvpwrvgnd_1
XTAP_138 VGND VPWR sky130_fd_sc_hd__tapvpwrvgnd_1
XTAP_149 VGND VPWR sky130_fd_sc_hd__tapvpwrvgnd_1
XFILLER_0_27_98 VGND VGND VPWR VPWR sky130_ef_sc_hd__decap_12
X_0629_ _0123_ _0125_ _0126_ VGND VGND VPWR VPWR _0127_ sky130_fd_sc_hd__and3_1
X_0980_ reg_data\[30\] reg_data\[14\] VGND VGND VPWR VPWR _0465_ sky130_fd_sc_hd__nand2_1
XFILLER_0_24_66 VGND VGND VPWR VPWR sky130_ef_sc_hd__decap_12
X_0894_ _0360_ reg_data\[10\] _0358_ VGND VGND VPWR VPWR _0382_ sky130_fd_sc_hd__o21a_1
X_0963_ reg_data\[13\] _0117_ _0094_ VGND VGND VPWR VPWR _0449_ sky130_fd_sc_hd__o21ai_1
XFILLER_0_36_141 VGND VGND VPWR VPWR sky130_ef_sc_hd__decap_12
XFILLER_0_19_108 VGND VGND VPWR VPWR sky130_fd_sc_hd__decap_4
XFILLER_0_27_185 VGND VGND VPWR VPWR sky130_ef_sc_hd__decap_12
X_0877_ _0364_ _0365_ VGND VGND VPWR VPWR _0366_ sky130_fd_sc_hd__nand2_1
X_0946_ _0431_ _0207_ _0432_ VGND VGND VPWR VPWR _0433_ sky130_fd_sc_hd__nand3_1
XFILLER_0_18_141 VGND VGND VPWR VPWR sky130_fd_sc_hd__decap_6
XFILLER_0_18_152 VGND VGND VPWR VPWR sky130_ef_sc_hd__decap_12
XFILLER_0_33_122 VGND VGND VPWR VPWR sky130_fd_sc_hd__decap_6
XFILLER_0_33_177 VGND VGND VPWR VPWR sky130_fd_sc_hd__fill_2
XFILLER_0_33_188 VGND VGND VPWR VPWR sky130_fd_sc_hd__fill_1
X_0731_ reg_data\[21\] reg_data\[5\] VGND VGND VPWR VPWR _0225_ sky130_fd_sc_hd__nand2_1
X_0800_ _0291_ _0212_ VGND VGND VPWR VPWR _0292_ sky130_fd_sc_hd__nand2_1
XFILLER_0_21_45 VGND VGND VPWR VPWR sky130_fd_sc_hd__fill_1
X_0662_ _0156_ _0157_ VGND VGND VPWR VPWR _0158_ sky130_fd_sc_hd__nand2_1
X_0593_ reg_data\[0\] VGND VGND VPWR VPWR _0092_ sky130_fd_sc_hd__inv_2
XFILLER_0_1_55 VGND VGND VPWR VPWR sky130_fd_sc_hd__fill_1
XFILLER_0_15_100 VGND VGND VPWR VPWR sky130_fd_sc_hd__fill_1
X_1076_ clknet_2_3__leaf_clk _0042_ VGND VGND VPWR VPWR net7 sky130_fd_sc_hd__dfxtp_1
X_0929_ _0414_ _0173_ _0415_ VGND VGND VPWR VPWR _0416_ sky130_fd_sc_hd__nand3_1
XFILLER_0_30_103 VGND VGND VPWR VPWR sky130_fd_sc_hd__fill_1
XFILLER_0_30_136 VGND VGND VPWR VPWR sky130_fd_sc_hd__decap_4
Xhold13 net13 VGND VGND VPWR VPWR net34 sky130_fd_sc_hd__dlygate4sd3_1
XFILLER_0_21_147 VGND VGND VPWR VPWR sky130_fd_sc_hd__decap_8
XFILLER_0_16_34 VGND VGND VPWR VPWR sky130_ef_sc_hd__decap_12
X_0714_ _0206_ _0207_ _0208_ VGND VGND VPWR VPWR _0209_ sky130_fd_sc_hd__and3_1
X_0645_ _0114_ VGND VGND VPWR VPWR _0142_ sky130_fd_sc_hd__clkbuf_4
X_0576_ _0079_ VGND VGND VPWR VPWR _0027_ sky130_fd_sc_hd__clkbuf_1
XFILLER_0_18_3 VGND VGND VPWR VPWR sky130_ef_sc_hd__decap_12
X_1059_ clknet_2_2__leaf_clk _0025_ VGND VGND VPWR VPWR reg_data\[25\] sky130_fd_sc_hd__dfxtp_2
XFILLER_0_7_185 VGND VGND VPWR VPWR sky130_fd_sc_hd__fill_2
Xoutput14 net14 VGND VGND VPWR VPWR result[2] sky130_fd_sc_hd__buf_2
XTAP_106 VGND VPWR sky130_fd_sc_hd__tapvpwrvgnd_1
XTAP_117 VGND VPWR sky130_fd_sc_hd__tapvpwrvgnd_1
XTAP_128 VGND VPWR sky130_fd_sc_hd__tapvpwrvgnd_1
XTAP_139 VGND VPWR sky130_fd_sc_hd__tapvpwrvgnd_1
XFILLER_0_27_44 VGND VGND VPWR VPWR sky130_fd_sc_hd__fill_1
XPHY_0 VGND VGND VPWR VPWR sky130_fd_sc_hd__decap_3
XFILLER_0_27_55 VGND VGND VPWR VPWR sky130_fd_sc_hd__fill_1
XFILLER_0_4_100 VGND VGND VPWR VPWR sky130_ef_sc_hd__decap_12
XFILLER_0_32_209 VGND VGND VPWR VPWR sky130_ef_sc_hd__decap_12
XFILLER_0_4_166 VGND VGND VPWR VPWR sky130_ef_sc_hd__decap_12
X_0628_ _0122_ _0118_ VGND VGND VPWR VPWR _0126_ sky130_fd_sc_hd__nand2_1
X_0559_ _0070_ VGND VGND VPWR VPWR _0019_ sky130_fd_sc_hd__clkbuf_1
XFILLER_0_7_3 VGND VGND VPWR VPWR sky130_ef_sc_hd__decap_12
XFILLER_0_14_209 VGND VGND VPWR VPWR sky130_fd_sc_hd__decap_8
XFILLER_0_1_147 VGND VGND VPWR VPWR sky130_fd_sc_hd__fill_1
XFILLER_0_24_78 VGND VGND VPWR VPWR sky130_fd_sc_hd__decap_6
X_0893_ _0378_ _0380_ VGND VGND VPWR VPWR _0381_ sky130_fd_sc_hd__nor2_1
X_0962_ reg_data\[29\] VGND VGND VPWR VPWR _0448_ sky130_fd_sc_hd__inv_2
XFILLER_0_28_109 VGND VGND VPWR VPWR sky130_fd_sc_hd__decap_4
XFILLER_0_36_164 VGND VGND VPWR VPWR sky130_fd_sc_hd__decap_4
XFILLER_0_36_153 VGND VGND VPWR VPWR sky130_fd_sc_hd__decap_6
XFILLER_0_36_120 VGND VGND VPWR VPWR sky130_fd_sc_hd__decap_3
XFILLER_0_10_36 VGND VGND VPWR VPWR sky130_fd_sc_hd__decap_6
XFILLER_0_27_120 VGND VGND VPWR VPWR sky130_ef_sc_hd__decap_12
XFILLER_0_27_197 VGND VGND VPWR VPWR sky130_fd_sc_hd__decap_8
X_0876_ _0363_ _0360_ VGND VGND VPWR VPWR _0365_ sky130_fd_sc_hd__nand2_1
X_0945_ _0430_ _0424_ VGND VGND VPWR VPWR _0432_ sky130_fd_sc_hd__nand2_1
XFILLER_0_18_164 VGND VGND VPWR VPWR sky130_fd_sc_hd__fill_1
XFILLER_0_18_186 VGND VGND VPWR VPWR sky130_fd_sc_hd__fill_1
X_0661_ reg_data\[19\] VGND VGND VPWR VPWR _0157_ sky130_fd_sc_hd__inv_2
X_0730_ _0208_ _0199_ _0222_ _0124_ VGND VGND VPWR VPWR _0224_ sky130_fd_sc_hd__a31o_1
XFILLER_0_21_57 VGND VGND VPWR VPWR sky130_ef_sc_hd__decap_12
X_0592_ _0084_ VGND VGND VPWR VPWR _0091_ sky130_fd_sc_hd__inv_2
X_1075_ clknet_2_3__leaf_clk _0041_ VGND VGND VPWR VPWR net21 sky130_fd_sc_hd__dfxtp_1
XFILLER_0_11_90 VGND VGND VPWR VPWR sky130_ef_sc_hd__decap_12
XFILLER_0_15_167 VGND VGND VPWR VPWR sky130_fd_sc_hd__fill_1
X_0859_ _0347_ _0348_ VGND VGND VPWR VPWR _0041_ sky130_fd_sc_hd__nand2_1
X_0928_ _0413_ _0405_ VGND VGND VPWR VPWR _0415_ sky130_fd_sc_hd__nand2_1
Xhold14 net14 VGND VGND VPWR VPWR net35 sky130_fd_sc_hd__dlygate4sd3_1
XFILLER_0_16_46 VGND VGND VPWR VPWR sky130_ef_sc_hd__decap_12
XFILLER_0_8_109 VGND VGND VPWR VPWR sky130_fd_sc_hd__decap_8
XFILLER_0_32_23 VGND VGND VPWR VPWR sky130_fd_sc_hd__fill_2
XFILLER_0_32_45 VGND VGND VPWR VPWR sky130_fd_sc_hd__decap_8
X_0644_ _0139_ _0137_ _0124_ VGND VGND VPWR VPWR _0141_ sky130_fd_sc_hd__a21o_1
XFILLER_0_12_137 VGND VGND VPWR VPWR sky130_fd_sc_hd__decap_3
X_0713_ _0205_ _0201_ VGND VGND VPWR VPWR _0208_ sky130_fd_sc_hd__nand2_1
X_0575_ reg_data\[27\] reg_data\[26\] _0077_ VGND VGND VPWR VPWR _0079_ sky130_fd_sc_hd__mux2_1