*SPEF "ieee 1481-1999"
*DESIGN "ula"
*DATE "11:11:11 Fri 11 11, 1111"
*VENDOR "OpenRCX"
*PROGRAM "Parallel Extraction"
*VERSION "1.0"
*DESIGN_FLOW "NAME_SCOPE LOCAL" "PIN_CAP NONE"
*DIVIDER /
*DELIMITER :
*BUS_DELIMITER []
*T_UNIT 1 NS
*C_UNIT 1 PF
*R_UNIT 1 OHM
*L_UNIT 1 HENRY

*NAME_MAP
*3 clk
*4 data_in
*5 en_in
*6 op[0]
*7 op[1]
*8 op[2]
*9 result[0]
*10 result[10]
*11 result[11]
*12 result[12]
*13 result[13]
*14 result[14]
*15 result[15]
*16 result[1]
*17 result[2]
*18 result[3]
*19 result[4]
*20 result[5]
*21 result[6]
*22 result[7]
*23 result[8]
*24 result[9]
*25 _0000_
*26 _0001_
*27 _0002_
*28 _0003_
*29 _0004_
*30 _0005_
*31 _0006_
*32 _0007_
*33 _0008_
*34 _0009_
*35 _0010_
*36 _0011_
*37 _0012_
*38 _0013_
*39 _0014_
*40 _0015_
*41 _0016_
*42 _0017_
*43 _0018_
*44 _0019_
*45 _0020_
*46 _0021_
*47 _0022_
*48 _0023_
*49 _0024_
*50 _0025_
*51 _0026_
*52 _0027_
*53 _0028_
*54 _0029_
*55 _0030_
*56 _0031_
*57 _0032_
*58 _0033_
*59 _0034_
*60 _0035_
*61 _0036_
*62 _0037_
*63 _0038_
*64 _0039_
*65 _0040_
*66 _0041_
*67 _0042_
*68 _0043_
*69 _0044_
*70 _0045_
*71 _0046_
*72 _0047_
*73 _0048_
*74 _0049_
*75 _0050_
*76 _0051_
*77 _0052_
*78 _0053_
*79 _0054_
*80 _0055_
*81 _0056_
*82 _0057_
*83 _0058_
*84 _0059_
*85 _0060_
*86 _0061_
*87 _0062_
*88 _0063_
*89 _0064_
*90 _0065_
*91 _0066_
*92 _0067_
*93 _0068_
*94 _0069_
*95 _0070_
*96 _0071_
*97 _0072_
*98 _0073_
*99 _0074_
*100 _0075_
*101 _0076_
*102 _0077_
*103 _0078_
*104 _0079_
*105 _0080_
*106 _0081_
*107 _0082_
*108 _0083_
*109 _0084_
*110 _0085_
*111 _0086_
*112 _0087_
*113 _0088_
*114 _0089_
*115 _0090_
*116 _0091_
*117 _0092_
*118 _0093_
*119 _0094_
*120 _0095_
*121 _0096_
*122 _0097_
*123 _0098_
*124 _0099_
*125 _0100_
*126 _0101_
*127 _0102_
*128 _0103_
*129 _0104_
*130 _0105_
*131 _0106_
*132 _0107_
*133 _0108_
*134 _0109_
*135 _0110_
*136 _0111_
*137 _0112_
*138 _0113_
*139 _0114_
*140 _0115_
*141 _0116_
*142 _0117_
*143 _0118_
*144 _0119_
*145 _0120_
*146 _0121_
*147 _0122_
*148 _0123_
*149 _0124_
*150 _0125_
*151 _0126_
*152 _0127_
*153 _0128_
*154 _0129_
*155 _0130_
*156 _0131_
*157 _0132_
*158 _0133_
*159 _0134_
*160 _0135_
*161 _0136_
*162 _0137_
*163 _0138_
*164 _0139_
*165 _0140_
*166 _0141_
*167 _0142_
*168 _0143_
*169 _0144_
*170 _0145_
*171 _0146_
*172 _0147_
*173 _0148_
*174 _0149_
*175 _0150_
*176 _0151_
*177 _0152_
*178 _0153_
*179 _0154_
*180 _0155_
*181 _0156_
*182 _0157_
*183 _0158_
*184 _0159_
*185 _0160_
*186 _0161_
*187 _0162_
*188 _0163_
*189 _0164_
*190 _0165_
*191 _0166_
*192 _0167_
*193 _0168_
*194 _0169_
*195 _0170_
*196 _0171_
*197 _0172_
*198 _0173_
*199 _0174_
*200 _0175_
*201 _0176_
*202 _0177_
*203 _0178_
*204 _0179_
*205 _0180_
*206 _0181_
*207 _0182_
*208 _0183_
*209 _0184_
*210 _0185_
*211 _0186_
*212 _0187_
*213 _0188_
*214 _0189_
*215 _0190_
*216 _0191_
*217 _0192_
*218 _0193_
*219 _0194_
*220 _0195_
*221 _0196_
*222 _0197_
*223 _0198_
*224 _0199_
*225 _0200_
*226 _0201_
*227 _0202_
*228 _0203_
*229 _0204_
*230 _0205_
*231 _0206_
*232 _0207_
*233 _0208_
*234 _0209_
*235 _0210_
*236 _0211_
*237 _0212_
*238 _0213_
*239 _0214_
*240 _0215_
*241 _0216_
*242 _0217_
*243 _0218_
*244 _0219_
*245 _0220_
*246 _0221_
*247 _0222_
*248 _0223_
*249 _0224_
*250 _0225_
*251 _0226_
*252 _0227_
*253 _0228_
*254 _0229_
*255 _0230_
*256 _0231_
*257 _0232_
*258 _0233_
*259 _0234_
*260 _0235_
*261 _0236_
*262 _0237_
*263 _0238_
*264 _0239_
*265 _0240_
*266 _0241_
*267 _0242_
*268 _0243_
*269 _0244_
*270 _0245_
*271 _0246_
*272 _0247_
*273 _0248_
*274 _0249_
*275 _0250_
*276 _0251_
*277 _0252_
*278 _0253_
*279 _0254_
*280 _0255_
*281 _0256_
*282 _0257_
*283 _0258_
*284 _0259_
*285 _0260_
*286 _0261_
*287 _0262_
*288 _0263_
*289 _0264_
*290 _0265_
*291 _0266_
*292 _0267_
*293 _0268_
*294 _0269_
*295 _0270_
*296 _0271_
*297 _0272_
*298 _0273_
*299 _0274_
*300 _0275_
*301 _0276_
*302 _0277_
*303 _0278_
*304 _0279_
*305 _0280_
*306 _0281_
*307 _0282_
*308 _0283_
*309 _0284_
*310 _0285_
*311 _0286_
*312 _0287_
*313 _0288_
*314 _0289_
*315 _0290_
*316 _0291_
*317 _0292_
*318 _0293_
*319 _0294_
*320 _0295_
*321 _0296_
*322 _0297_
*323 _0298_
*324 _0299_
*325 _0300_
*326 _0301_
*327 _0302_
*328 _0303_
*329 _0304_
*330 _0305_
*331 _0306_
*332 _0307_
*333 _0308_
*334 _0309_
*335 _0310_
*336 _0311_
*337 _0312_
*338 _0313_
*339 _0314_
*340 _0315_
*341 _0316_
*342 _0317_
*343 _0318_
*344 _0319_
*345 _0320_
*346 _0321_
*347 _0322_
*348 _0323_
*349 _0324_
*350 _0325_
*351 _0326_
*352 _0327_
*353 _0328_
*354 _0329_
*355 _0330_
*356 _0331_
*357 _0332_
*358 _0333_
*359 _0334_
*360 _0335_
*361 _0336_
*362 _0337_
*363 _0338_
*364 _0339_
*365 _0340_
*366 _0341_
*367 _0342_
*368 _0343_
*369 _0344_
*370 _0345_
*371 _0346_
*372 _0347_
*373 _0348_
*374 _0349_
*375 _0350_
*376 _0351_
*377 _0352_
*378 _0353_
*379 _0354_
*380 _0355_
*381 _0356_
*382 _0357_
*383 _0358_
*384 _0359_
*385 _0360_
*386 _0361_
*387 _0362_
*388 _0363_
*389 _0364_
*390 _0365_
*391 _0366_
*392 _0367_
*393 _0368_
*394 _0369_
*395 _0370_
*396 _0371_
*397 _0372_
*398 _0373_
*399 _0374_
*400 _0375_
*401 _0376_
*402 _0377_
*403 _0378_
*404 _0379_
*405 _0380_
*406 _0381_
*407 _0382_
*408 _0383_
*409 _0384_
*410 _0385_
*411 _0386_
*412 _0387_
*413 _0388_
*414 _0389_
*415 _0390_
*416 _0391_
*417 _0392_
*418 _0393_
*419 _0394_
*420 _0395_
*421 _0396_
*422 _0397_
*423 _0398_
*424 _0399_
*425 _0400_
*426 _0401_
*427 _0402_
*428 _0403_
*429 _0404_
*430 _0405_
*431 _0406_
*432 _0407_
*433 _0408_
*434 _0409_
*435 _0410_
*436 _0411_
*437 _0412_
*438 _0413_
*439 _0414_
*440 _0415_
*441 _0416_
*442 _0417_
*443 _0418_
*444 _0419_
*445 _0420_
*446 _0421_
*447 _0422_
*448 _0423_
*449 _0424_
*450 _0425_
*451 _0426_
*452 _0427_
*453 _0428_
*454 _0429_
*455 _0430_
*456 _0431_
*457 _0432_
*458 _0433_
*459 _0434_
*460 _0435_
*461 _0436_
*462 _0437_
*463 _0438_
*464 _0439_
*465 _0440_
*466 _0441_
*467 _0442_
*468 _0443_
*469 _0444_
*470 _0445_
*471 _0446_
*472 _0447_
*473 _0448_
*474 _0449_
*475 _0450_
*476 _0451_
*477 _0452_
*478 _0453_
*479 _0454_
*480 _0455_
*481 _0456_
*482 _0457_
*483 _0458_
*484 _0459_
*485 _0460_
*486 _0461_
*487 _0462_
*488 _0463_
*489 _0464_
*490 _0465_
*491 _0466_
*492 _0467_
*493 _0468_
*494 _0469_
*495 _0470_
*496 _0471_
*497 _0472_
*498 _0473_
*499 _0474_
*500 _0475_
*501 _0476_
*502 _0477_
*503 _0478_
*504 _0479_
*505 _0480_
*506 _0481_
*507 _0482_
*508 _0483_
*509 _0484_
*510 _0485_
*511 _0486_
*512 _0487_
*513 _0488_
*514 _0489_
*515 _0490_
*516 _0491_
*517 _0492_
*518 _0493_
*519 _0494_
*520 _0495_
*521 _0496_
*522 _0497_
*523 _0498_
*524 _0499_
*525 _0500_
*526 _0501_
*527 _0502_
*528 _0503_
*529 _0504_
*530 _0505_
*531 _0506_
*532 _0507_
*533 _0508_
*534 _0509_
*535 _0510_
*536 _0511_
*537 _0512_
*538 _0513_
*539 _0514_
*540 _0515_
*541 _0516_
*542 clknet_0_clk
*543 clknet_2_0__leaf_clk
*544 clknet_2_1__leaf_clk
*545 clknet_2_2__leaf_clk
*546 clknet_2_3__leaf_clk
*547 net1
*548 net10
*549 net11
*550 net12
*551 net13
*552 net14
*553 net15
*554 net16
*555 net17
*556 net18
*557 net19
*558 net2
*559 net20
*560 net21
*561 net22
*562 net23
*563 net24
*564 net25
*565 net26
*566 net27
*567 net28
*568 net29
*569 net3
*570 net30
*571 net31
*572 net32
*573 net33
*574 net34
*575 net35
*576 net36
*577 net37
*578 net4
*579 net5
*580 net6
*581 net7
*582 net8
*583 net9
*584 reg_data\[0\]
*585 reg_data\[10\]
*586 reg_data\[11\]
*587 reg_data\[12\]
*588 reg_data\[13\]
*589 reg_data\[14\]
*590 reg_data\[15\]
*591 reg_data\[16\]
*592 reg_data\[17\]
*593 reg_data\[18\]
*594 reg_data\[19\]
*595 reg_data\[1\]
*596 reg_data\[20\]
*597 reg_data\[21\]
*598 reg_data\[22\]
*599 reg_data\[23\]
*600 reg_data\[24\]
*601 reg_data\[25\]
*602 reg_data\[26\]
*603 reg_data\[27\]
*604 reg_data\[28\]
*605 reg_data\[29\]
*606 reg_data\[2\]
*607 reg_data\[30\]
*608 reg_data\[31\]
*609 reg_data\[3\]
*610 reg_data\[4\]
*611 reg_data\[5\]
*612 reg_data\[6\]
*613 reg_data\[7\]
*614 reg_data\[8\]
*615 reg_data\[9\]
*616 FILLER_0_0_109
*617 FILLER_0_0_113
*618 FILLER_0_0_125
*619 FILLER_0_0_137
*620 FILLER_0_0_141
*621 FILLER_0_0_149
*622 FILLER_0_0_15
*623 FILLER_0_0_164
*624 FILLER_0_0_169
*625 FILLER_0_0_175
*626 FILLER_0_0_187
*627 FILLER_0_0_195
*628 FILLER_0_0_197
*629 FILLER_0_0_209
*630 FILLER_0_0_217
*631 FILLER_0_0_27
*632 FILLER_0_0_29
*633 FILLER_0_0_3
*634 FILLER_0_0_41
*635 FILLER_0_0_53
*636 FILLER_0_0_57
*637 FILLER_0_0_69
*638 FILLER_0_0_81
*639 FILLER_0_0_85
*640 FILLER_0_0_97
*641 FILLER_0_10_127
*642 FILLER_0_10_135
*643 FILLER_0_10_15
*644 FILLER_0_10_155
*645 FILLER_0_10_164
*646 FILLER_0_10_177
*647 FILLER_0_10_189
*648 FILLER_0_10_195
*649 FILLER_0_10_197
*650 FILLER_0_10_27
*651 FILLER_0_10_29
*652 FILLER_0_10_3
*653 FILLER_0_10_36
*654 FILLER_0_10_45
*655 FILLER_0_10_52
*656 FILLER_0_10_64
*657 FILLER_0_10_72
*658 FILLER_0_10_85
*659 FILLER_0_10_92
*660 FILLER_0_10_96
*661 FILLER_0_11_102
*662 FILLER_0_11_110
*663 FILLER_0_11_129
*664 FILLER_0_11_141
*665 FILLER_0_11_15
*666 FILLER_0_11_151
*667 FILLER_0_11_159
*668 FILLER_0_11_167
*669 FILLER_0_11_181
*670 FILLER_0_11_27
*671 FILLER_0_11_3
*672 FILLER_0_11_54
*673 FILLER_0_11_68
*674 FILLER_0_11_80
*675 FILLER_0_11_90
*676 FILLER_0_12_100
*677 FILLER_0_12_112
*678 FILLER_0_12_129
*679 FILLER_0_12_137
*680 FILLER_0_12_141
*681 FILLER_0_12_15
*682 FILLER_0_12_153
*683 FILLER_0_12_160
*684 FILLER_0_12_172
*685 FILLER_0_12_180
*686 FILLER_0_12_194
*687 FILLER_0_12_197
*688 FILLER_0_12_208
*689 FILLER_0_12_218
*690 FILLER_0_12_27
*691 FILLER_0_12_29
*692 FILLER_0_12_3
*693 FILLER_0_12_41
*694 FILLER_0_12_45
*695 FILLER_0_12_49
*696 FILLER_0_12_55
*697 FILLER_0_12_67
*698 FILLER_0_12_79
*699 FILLER_0_12_83
*700 FILLER_0_12_88
*701 FILLER_0_13_111
*702 FILLER_0_13_119
*703 FILLER_0_13_131
*704 FILLER_0_13_137
*705 FILLER_0_13_141
*706 FILLER_0_13_147
*707 FILLER_0_13_15
*708 FILLER_0_13_151
*709 FILLER_0_13_157
*710 FILLER_0_13_165
*711 FILLER_0_13_169
*712 FILLER_0_13_181
*713 FILLER_0_13_193
*714 FILLER_0_13_197
*715 FILLER_0_13_217
*716 FILLER_0_13_27
*717 FILLER_0_13_3
*718 FILLER_0_13_31
*719 FILLER_0_13_41
*720 FILLER_0_13_53
*721 FILLER_0_13_60
*722 FILLER_0_13_66
*723 FILLER_0_13_71
*724 FILLER_0_13_80
*725 FILLER_0_13_86
*726 FILLER_0_13_90
*727 FILLER_0_13_98
*728 FILLER_0_14_104
*729 FILLER_0_14_112
*730 FILLER_0_14_131
*731 FILLER_0_14_139
*732 FILLER_0_14_141
*733 FILLER_0_14_15
*734 FILLER_0_14_153
*735 FILLER_0_14_165
*736 FILLER_0_14_175
*737 FILLER_0_14_184
*738 FILLER_0_14_197
*739 FILLER_0_14_209
*740 FILLER_0_14_217
*741 FILLER_0_14_23
*742 FILLER_0_14_3
*743 FILLER_0_14_45
*744 FILLER_0_14_57
*745 FILLER_0_14_78
*746 FILLER_0_14_89
*747 FILLER_0_15_100
*748 FILLER_0_15_104
*749 FILLER_0_15_119
*750 FILLER_0_15_131
*751 FILLER_0_15_15
*752 FILLER_0_15_158
*753 FILLER_0_15_167
*754 FILLER_0_15_181
*755 FILLER_0_15_200
*756 FILLER_0_15_205
*757 FILLER_0_15_3
*758 FILLER_0_15_53
*759 FILLER_0_15_57
*760 FILLER_0_15_65
*761 FILLER_0_15_73
*762 FILLER_0_15_85
*763 FILLER_0_16_117
*764 FILLER_0_16_125
*765 FILLER_0_16_135
*766 FILLER_0_16_139
*767 FILLER_0_16_15
*768 FILLER_0_16_193
*769 FILLER_0_16_197
*770 FILLER_0_16_27
*771 FILLER_0_16_29
*772 FILLER_0_16_3
*773 FILLER_0_16_34
*774 FILLER_0_16_46
*775 FILLER_0_16_58
*776 FILLER_0_16_70
*777 FILLER_0_16_82
*778 FILLER_0_16_85
*779 FILLER_0_16_97
*780 FILLER_0_17_104
*781 FILLER_0_17_113
*782 FILLER_0_17_125
*783 FILLER_0_17_133
*784 FILLER_0_17_145
*785 FILLER_0_17_15
*786 FILLER_0_17_157
*787 FILLER_0_17_165
*788 FILLER_0_17_179
*789 FILLER_0_17_191
*790 FILLER_0_17_195
*791 FILLER_0_17_207
*792 FILLER_0_17_27
*793 FILLER_0_17_3
*794 FILLER_0_17_39
*795 FILLER_0_17_49
*796 FILLER_0_17_57
*797 FILLER_0_17_69
*798 FILLER_0_17_80
*799 FILLER_0_17_92
*800 FILLER_0_18_109
*801 FILLER_0_18_121
*802 FILLER_0_18_132
*803 FILLER_0_18_141
*804 FILLER_0_18_147
*805 FILLER_0_18_15
*806 FILLER_0_18_152
*807 FILLER_0_18_164
*808 FILLER_0_18_169
*809 FILLER_0_18_180
*810 FILLER_0_18_186
*811 FILLER_0_18_21
*812 FILLER_0_18_25
*813 FILLER_0_18_29
*814 FILLER_0_18_3
*815 FILLER_0_18_37
*816 FILLER_0_18_61
*817 FILLER_0_18_76
*818 FILLER_0_18_81
*819 FILLER_0_18_85
*820 FILLER_0_18_97
*821 FILLER_0_19_108
*822 FILLER_0_19_15
*823 FILLER_0_19_157
*824 FILLER_0_19_165
*825 FILLER_0_19_169
*826 FILLER_0_19_181
*827 FILLER_0_19_193
*828 FILLER_0_19_199
*829 FILLER_0_19_3
*830 FILLER_0_19_43
*831 FILLER_0_19_54
*832 FILLER_0_19_57
*833 FILLER_0_19_92
*834 FILLER_0_1_109
*835 FILLER_0_1_116
*836 FILLER_0_1_139
*837 FILLER_0_1_147
*838 FILLER_0_1_15
*839 FILLER_0_1_164
*840 FILLER_0_1_185
*841 FILLER_0_1_197
*842 FILLER_0_1_209
*843 FILLER_0_1_221
*844 FILLER_0_1_27
*845 FILLER_0_1_3
*846 FILLER_0_1_39
*847 FILLER_0_1_51
*848 FILLER_0_1_55
*849 FILLER_0_1_57
*850 FILLER_0_1_69
*851 FILLER_0_1_75
*852 FILLER_0_1_79
*853 FILLER_0_1_91
*854 FILLER_0_20_101
*855 FILLER_0_20_105
*856 FILLER_0_20_115
*857 FILLER_0_20_123
*858 FILLER_0_20_129
*859 FILLER_0_20_147
*860 FILLER_0_20_15
*861 FILLER_0_20_156
*862 FILLER_0_20_168
*863 FILLER_0_20_185
*864 FILLER_0_20_194
*865 FILLER_0_20_213
*866 FILLER_0_20_217
*867 FILLER_0_20_27
*868 FILLER_0_20_29
*869 FILLER_0_20_3
*870 FILLER_0_20_41
*871 FILLER_0_20_45
*872 FILLER_0_20_49
*873 FILLER_0_20_61
*874 FILLER_0_20_73
*875 FILLER_0_20_81
*876 FILLER_0_20_85
*877 FILLER_0_20_93
*878 FILLER_0_21_108
*879 FILLER_0_21_113
*880 FILLER_0_21_132
*881 FILLER_0_21_140
*882 FILLER_0_21_147
*883 FILLER_0_21_15
*884 FILLER_0_21_164
*885 FILLER_0_21_191
*886 FILLER_0_21_199
*887 FILLER_0_21_210
*888 FILLER_0_21_27
*889 FILLER_0_21_3
*890 FILLER_0_21_39
*891 FILLER_0_21_45
*892 FILLER_0_21_49
*893 FILLER_0_21_55
*894 FILLER_0_21_57
*895 FILLER_0_21_69
*896 FILLER_0_21_81
*897 FILLER_0_21_91
*898 FILLER_0_21_96
*899 FILLER_0_22_103
*900 FILLER_0_22_119
*901 FILLER_0_22_131
*902 FILLER_0_22_139
*903 FILLER_0_22_141
*904 FILLER_0_22_15
*905 FILLER_0_22_153
*906 FILLER_0_22_187
*907 FILLER_0_22_195
*908 FILLER_0_22_197
*909 FILLER_0_22_209
*910 FILLER_0_22_23
*911 FILLER_0_22_27
*912 FILLER_0_22_3
*913 FILLER_0_22_38
*914 FILLER_0_22_67
*915 FILLER_0_22_78
*916 FILLER_0_22_85
*917 FILLER_0_23_101
*918 FILLER_0_23_109
*919 FILLER_0_23_113
*920 FILLER_0_23_125
*921 FILLER_0_23_131
*922 FILLER_0_23_135
*923 FILLER_0_23_141
*924 FILLER_0_23_15
*925 FILLER_0_23_151
*926 FILLER_0_23_155
*927 FILLER_0_23_169
*928 FILLER_0_23_181
*929 FILLER_0_23_191
*930 FILLER_0_23_195
*931 FILLER_0_23_199
*932 FILLER_0_23_3
*933 FILLER_0_23_35
*934 FILLER_0_23_47
*935 FILLER_0_23_89
*936 FILLER_0_24_121
*937 FILLER_0_24_139
*938 FILLER_0_24_141
*939 FILLER_0_24_15
*940 FILLER_0_24_158
*941 FILLER_0_24_170
*942 FILLER_0_24_182
*943 FILLER_0_24_194
*944 FILLER_0_24_214
*945 FILLER_0_24_24
*946 FILLER_0_24_29
*947 FILLER_0_24_3
*948 FILLER_0_24_41
*949 FILLER_0_24_54
*950 FILLER_0_24_66
*951 FILLER_0_24_78
*952 FILLER_0_24_85
*953 FILLER_0_24_93
*954 FILLER_0_24_97
*955 FILLER_0_25_101
*956 FILLER_0_25_109
*957 FILLER_0_25_113
*958 FILLER_0_25_15
*959 FILLER_0_25_158
*960 FILLER_0_25_166
*961 FILLER_0_25_169
*962 FILLER_0_25_185
*963 FILLER_0_25_197
*964 FILLER_0_25_207
*965 FILLER_0_25_214
*966 FILLER_0_25_3
*967 FILLER_0_25_42
*968 FILLER_0_25_48
*969 FILLER_0_25_55
*970 FILLER_0_25_57
*971 FILLER_0_25_69
*972 FILLER_0_25_81
*973 FILLER_0_26_102
*974 FILLER_0_26_114
*975 FILLER_0_26_122
*976 FILLER_0_26_132
*977 FILLER_0_26_141
*978 FILLER_0_26_146
*979 FILLER_0_26_15
*980 FILLER_0_26_163
*981 FILLER_0_26_189
*982 FILLER_0_26_195
*983 FILLER_0_26_197
*984 FILLER_0_26_205
*985 FILLER_0_26_27
*986 FILLER_0_26_29
*987 FILLER_0_26_3
*988 FILLER_0_26_41
*989 FILLER_0_26_45
*990 FILLER_0_26_50
*991 FILLER_0_26_55
*992 FILLER_0_26_67
*993 FILLER_0_26_79
*994 FILLER_0_26_83
*995 FILLER_0_26_88
*996 FILLER_0_26_94
*997 FILLER_0_26_98
*998 FILLER_0_27_110
*999 FILLER_0_27_113
*1000 FILLER_0_27_120
*1001 FILLER_0_27_132
*1002 FILLER_0_27_147
*1003 FILLER_0_27_15
*1004 FILLER_0_27_159
*1005 FILLER_0_27_167
*1006 FILLER_0_27_169
*1007 FILLER_0_27_185
*1008 FILLER_0_27_197
*1009 FILLER_0_27_211
*1010 FILLER_0_27_27
*1011 FILLER_0_27_3
*1012 FILLER_0_27_38
*1013 FILLER_0_27_44
*1014 FILLER_0_27_51
*1015 FILLER_0_27_55
*1016 FILLER_0_27_57
*1017 FILLER_0_27_82
*1018 FILLER_0_27_98
*1019 FILLER_0_28_104
*1020 FILLER_0_28_109
*1021 FILLER_0_28_113
*1022 FILLER_0_28_135
*1023 FILLER_0_28_139
*1024 FILLER_0_28_141
*1025 FILLER_0_28_15
*1026 FILLER_0_28_153
*1027 FILLER_0_28_165
*1028 FILLER_0_28_171
*1029 FILLER_0_28_183
*1030 FILLER_0_28_191
*1031 FILLER_0_28_195
*1032 FILLER_0_28_197
*1033 FILLER_0_28_203
*1034 FILLER_0_28_217
*1035 FILLER_0_28_23
*1036 FILLER_0_28_27
*1037 FILLER_0_28_29
*1038 FILLER_0_28_3
*1039 FILLER_0_28_37
*1040 FILLER_0_28_66
*1041 FILLER_0_28_92
*1042 FILLER_0_29_132
*1043 FILLER_0_29_137
*1044 FILLER_0_29_145
*1045 FILLER_0_29_15
*1046 FILLER_0_29_172
*1047 FILLER_0_29_182
*1048 FILLER_0_29_186
*1049 FILLER_0_29_217
*1050 FILLER_0_29_3
*1051 FILLER_0_29_36
*1052 FILLER_0_29_48
*1053 FILLER_0_29_57
*1054 FILLER_0_29_69
*1055 FILLER_0_29_81
*1056 FILLER_0_29_87
*1057 FILLER_0_29_99
*1058 FILLER_0_2_121
*1059 FILLER_0_2_15
*1060 FILLER_0_2_150
*1061 FILLER_0_2_162
*1062 FILLER_0_2_170
*1063 FILLER_0_2_192
*1064 FILLER_0_2_197
*1065 FILLER_0_2_209
*1066 FILLER_0_2_221
*1067 FILLER_0_2_27
*1068 FILLER_0_2_29
*1069 FILLER_0_2_3
*1070 FILLER_0_2_41
*1071 FILLER_0_2_53
*1072 FILLER_0_2_65
*1073 FILLER_0_2_94
*1074 FILLER_0_30_103
*1075 FILLER_0_30_109
*1076 FILLER_0_30_117
*1077 FILLER_0_30_129
*1078 FILLER_0_30_136
*1079 FILLER_0_30_141
*1080 FILLER_0_30_149
*1081 FILLER_0_30_15
*1082 FILLER_0_30_168
*1083 FILLER_0_30_185
*1084 FILLER_0_30_193
*1085 FILLER_0_30_201
*1086 FILLER_0_30_205
*1087 FILLER_0_30_27
*1088 FILLER_0_30_29
*1089 FILLER_0_30_3
*1090 FILLER_0_30_41
*1091 FILLER_0_30_53
*1092 FILLER_0_30_70
*1093 FILLER_0_30_82
*1094 FILLER_0_30_85
*1095 FILLER_0_30_97
*1096 FILLER_0_31_108
*1097 FILLER_0_31_113
*1098 FILLER_0_31_125
*1099 FILLER_0_31_137
*1100 FILLER_0_31_149
*1101 FILLER_0_31_15
*1102 FILLER_0_31_160
*1103 FILLER_0_31_169
*1104 FILLER_0_31_177
*1105 FILLER_0_31_181
*1106 FILLER_0_31_193
*1107 FILLER_0_31_205
*1108 FILLER_0_31_212
*1109 FILLER_0_31_27
*1110 FILLER_0_31_3
*1111 FILLER_0_31_38
*1112 FILLER_0_31_44
*1113 FILLER_0_31_55
*1114 FILLER_0_31_68
*1115 FILLER_0_31_76
*1116 FILLER_0_31_96
*1117 FILLER_0_32_102
*1118 FILLER_0_32_107
*1119 FILLER_0_32_112
*1120 FILLER_0_32_124
*1121 FILLER_0_32_132
*1122 FILLER_0_32_138
*1123 FILLER_0_32_144
*1124 FILLER_0_32_15
*1125 FILLER_0_32_156
*1126 FILLER_0_32_168
*1127 FILLER_0_32_180
*1128 FILLER_0_32_192
*1129 FILLER_0_32_197
*1130 FILLER_0_32_209
*1131 FILLER_0_32_221
*1132 FILLER_0_32_23
*1133 FILLER_0_32_3
*1134 FILLER_0_32_45
*1135 FILLER_0_32_53
*1136 FILLER_0_32_58
*1137 FILLER_0_32_64
*1138 FILLER_0_32_71
*1139 FILLER_0_32_94
*1140 FILLER_0_33_110
*1141 FILLER_0_33_122
*1142 FILLER_0_33_128
*1143 FILLER_0_33_132
*1144 FILLER_0_33_148
*1145 FILLER_0_33_15
*1146 FILLER_0_33_160
*1147 FILLER_0_33_164
*1148 FILLER_0_33_169
*1149 FILLER_0_33_177
*1150 FILLER_0_33_182
*1151 FILLER_0_33_188
*1152 FILLER_0_33_195
*1153 FILLER_0_33_27
*1154 FILLER_0_33_3
*1155 FILLER_0_33_39
*1156 FILLER_0_33_47
*1157 FILLER_0_33_55
*1158 FILLER_0_33_60
*1159 FILLER_0_33_72
*1160 FILLER_0_33_87
*1161 FILLER_0_33_99
*1162 FILLER_0_34_100
*1163 FILLER_0_34_112
*1164 FILLER_0_34_126
*1165 FILLER_0_34_133
*1166 FILLER_0_34_138
*1167 FILLER_0_34_144
*1168 FILLER_0_34_15
*1169 FILLER_0_34_159
*1170 FILLER_0_34_175
*1171 FILLER_0_34_179
*1172 FILLER_0_34_184
*1173 FILLER_0_34_197
*1174 FILLER_0_34_203
*1175 FILLER_0_34_221
*1176 FILLER_0_34_27
*1177 FILLER_0_34_29
*1178 FILLER_0_34_3
*1179 FILLER_0_34_41
*1180 FILLER_0_34_53
*1181 FILLER_0_34_65
*1182 FILLER_0_34_77
*1183 FILLER_0_34_83
*1184 FILLER_0_34_94
*1185 FILLER_0_35_106
*1186 FILLER_0_35_119
*1187 FILLER_0_35_123
*1188 FILLER_0_35_127
*1189 FILLER_0_35_148
*1190 FILLER_0_35_15
*1191 FILLER_0_35_167
*1192 FILLER_0_35_183
*1193 FILLER_0_35_196
*1194 FILLER_0_35_202
*1195 FILLER_0_35_27
*1196 FILLER_0_35_3
*1197 FILLER_0_35_39
*1198 FILLER_0_35_57
*1199 FILLER_0_35_67
*1200 FILLER_0_35_91
*1201 FILLER_0_36_108
*1202 FILLER_0_36_120
*1203 FILLER_0_36_135
*1204 FILLER_0_36_139
*1205 FILLER_0_36_141
*1206 FILLER_0_36_15
*1207 FILLER_0_36_153
*1208 FILLER_0_36_159
*1209 FILLER_0_36_164
*1210 FILLER_0_36_171
*1211 FILLER_0_36_183
*1212 FILLER_0_36_195
*1213 FILLER_0_36_213
*1214 FILLER_0_36_27
*1215 FILLER_0_36_29
*1216 FILLER_0_36_3
*1217 FILLER_0_36_41
*1218 FILLER_0_36_46
*1219 FILLER_0_36_54
*1220 FILLER_0_36_75
*1221 FILLER_0_36_80
*1222 FILLER_0_36_85
*1223 FILLER_0_37_110
*1224 FILLER_0_37_113
*1225 FILLER_0_37_125
*1226 FILLER_0_37_137
*1227 FILLER_0_37_141
*1228 FILLER_0_37_153
*1229 FILLER_0_37_16
*1230 FILLER_0_37_165
*1231 FILLER_0_37_169
*1232 FILLER_0_37_173
*1233 FILLER_0_37_178
*1234 FILLER_0_37_190
*1235 FILLER_0_37_197
*1236 FILLER_0_37_207
*1237 FILLER_0_37_29
*1238 FILLER_0_37_3
*1239 FILLER_0_37_41
*1240 FILLER_0_37_53
*1241 FILLER_0_37_63
*1242 FILLER_0_37_75
*1243 FILLER_0_37_83
*1244 FILLER_0_37_85
*1245 FILLER_0_37_9
*1246 FILLER_0_37_91
*1247 FILLER_0_37_98
*1248 FILLER_0_3_109
*1249 FILLER_0_3_113
*1250 FILLER_0_3_124
*1251 FILLER_0_3_137
*1252 FILLER_0_3_149
*1253 FILLER_0_3_15
*1254 FILLER_0_3_161
*1255 FILLER_0_3_167
*1256 FILLER_0_3_169
*1257 FILLER_0_3_191
*1258 FILLER_0_3_197
*1259 FILLER_0_3_214
*1260 FILLER_0_3_27
*1261 FILLER_0_3_3
*1262 FILLER_0_3_39
*1263 FILLER_0_3_51
*1264 FILLER_0_3_55
*1265 FILLER_0_3_57
*1266 FILLER_0_3_69
*1267 FILLER_0_3_81
*1268 FILLER_0_3_93
*1269 FILLER_0_3_97
*1270 FILLER_0_4_100
*1271 FILLER_0_4_112
*1272 FILLER_0_4_124
*1273 FILLER_0_4_136
*1274 FILLER_0_4_141
*1275 FILLER_0_4_149
*1276 FILLER_0_4_15
*1277 FILLER_0_4_166
*1278 FILLER_0_4_178
*1279 FILLER_0_4_190
*1280 FILLER_0_4_197
*1281 FILLER_0_4_201
*1282 FILLER_0_4_216
*1283 FILLER_0_4_27
*1284 FILLER_0_4_29
*1285 FILLER_0_4_3
*1286 FILLER_0_4_41
*1287 FILLER_0_4_53
*1288 FILLER_0_4_59
*1289 FILLER_0_4_63
*1290 FILLER_0_4_75
*1291 FILLER_0_4_83
*1292 FILLER_0_4_85
*1293 FILLER_0_5_111
*1294 FILLER_0_5_113
*1295 FILLER_0_5_128
*1296 FILLER_0_5_140
*1297 FILLER_0_5_146
*1298 FILLER_0_5_15
*1299 FILLER_0_5_155
*1300 FILLER_0_5_162
*1301 FILLER_0_5_172
*1302 FILLER_0_5_177
*1303 FILLER_0_5_189
*1304 FILLER_0_5_27
*1305 FILLER_0_5_3
*1306 FILLER_0_5_35
*1307 FILLER_0_5_39
*1308 FILLER_0_5_51
*1309 FILLER_0_5_55
*1310 FILLER_0_5_64
*1311 FILLER_0_5_81
*1312 FILLER_0_5_87
*1313 FILLER_0_6_104
*1314 FILLER_0_6_116
*1315 FILLER_0_6_128
*1316 FILLER_0_6_141
*1317 FILLER_0_6_15
*1318 FILLER_0_6_160
*1319 FILLER_0_6_184
*1320 FILLER_0_6_215
*1321 FILLER_0_6_221
*1322 FILLER_0_6_27
*1323 FILLER_0_6_29
*1324 FILLER_0_6_3
*1325 FILLER_0_6_57
*1326 FILLER_0_6_64
*1327 FILLER_0_6_73
*1328 FILLER_0_6_81
*1329 FILLER_0_6_85
*1330 FILLER_0_6_93
*1331 FILLER_0_6_97
*1332 FILLER_0_7_109
*1333 FILLER_0_7_113
*1334 FILLER_0_7_117
*1335 FILLER_0_7_124
*1336 FILLER_0_7_136
*1337 FILLER_0_7_15
*1338 FILLER_0_7_155
*1339 FILLER_0_7_167
*1340 FILLER_0_7_185
*1341 FILLER_0_7_23
*1342 FILLER_0_7_3
*1343 FILLER_0_7_51
*1344 FILLER_0_7_55
*1345 FILLER_0_7_57
*1346 FILLER_0_7_80
*1347 FILLER_0_7_88
*1348 FILLER_0_8_109
*1349 FILLER_0_8_117
*1350 FILLER_0_8_135
*1351 FILLER_0_8_139
*1352 FILLER_0_8_141
*1353 FILLER_0_8_15
*1354 FILLER_0_8_153
*1355 FILLER_0_8_165
*1356 FILLER_0_8_177
*1357 FILLER_0_8_189
*1358 FILLER_0_8_195
*1359 FILLER_0_8_197
*1360 FILLER_0_8_201
*1361 FILLER_0_8_27
*1362 FILLER_0_8_29
*1363 FILLER_0_8_3
*1364 FILLER_0_8_34
*1365 FILLER_0_8_46
*1366 FILLER_0_8_54
*1367 FILLER_0_8_61
*1368 FILLER_0_8_73
*1369 FILLER_0_8_77
*1370 FILLER_0_8_83
*1371 FILLER_0_8_85
*1372 FILLER_0_8_97
*1373 FILLER_0_9_100
*1374 FILLER_0_9_113
*1375 FILLER_0_9_119
*1376 FILLER_0_9_15
*1377 FILLER_0_9_152
*1378 FILLER_0_9_164
*1379 FILLER_0_9_183
*1380 FILLER_0_9_195
*1381 FILLER_0_9_201
*1382 FILLER_0_9_205
*1383 FILLER_0_9_27
*1384 FILLER_0_9_3
*1385 FILLER_0_9_39
*1386 FILLER_0_9_51
*1387 FILLER_0_9_71
*1388 FILLER_0_9_79
*1389 FILLER_0_9_84
*1390 FILLER_0_9_96
*1391 PHY_0
*1392 PHY_1
*1393 PHY_10
*1394 PHY_11
*1395 PHY_12
*1396 PHY_13
*1397 PHY_14
*1398 PHY_15
*1399 PHY_16
*1400 PHY_17
*1401 PHY_18
*1402 PHY_19
*1403 PHY_2
*1404 PHY_20
*1405 PHY_21
*1406 PHY_22
*1407 PHY_23
*1408 PHY_24
*1409 PHY_25
*1410 PHY_26
*1411 PHY_27
*1412 PHY_28
*1413 PHY_29
*1414 PHY_3
*1415 PHY_30
*1416 PHY_31
*1417 PHY_32
*1418 PHY_33
*1419 PHY_34
*1420 PHY_35
*1421 PHY_36
*1422 PHY_37
*1423 PHY_38
*1424 PHY_39
*1425 PHY_4
*1426 PHY_40
*1427 PHY_41
*1428 PHY_42
*1429 PHY_43
*1430 PHY_44
*1431 PHY_45
*1432 PHY_46
*1433 PHY_47
*1434 PHY_48
*1435 PHY_49
*1436 PHY_5
*1437 PHY_50
*1438 PHY_51
*1439 PHY_52
*1440 PHY_53
*1441 PHY_54
*1442 PHY_55
*1443 PHY_56
*1444 PHY_57
*1445 PHY_58
*1446 PHY_59
*1447 PHY_6
*1448 PHY_60
*1449 PHY_61
*1450 PHY_62
*1451 PHY_63
*1452 PHY_64
*1453 PHY_65
*1454 PHY_66
*1455 PHY_67
*1456 PHY_68
*1457 PHY_69
*1458 PHY_7
*1459 PHY_70
*1460 PHY_71
*1461 PHY_72
*1462 PHY_73
*1463 PHY_74
*1464 PHY_75
*1465 PHY_8
*1466 PHY_9
*1467 TAP_100
*1468 TAP_101
*1469 TAP_102
*1470 TAP_103
*1471 TAP_104
*1472 TAP_105
*1473 TAP_106
*1474 TAP_107
*1475 TAP_108
*1476 TAP_109
*1477 TAP_110
*1478 TAP_111
*1479 TAP_112
*1480 TAP_113
*1481 TAP_114
*1482 TAP_115
*1483 TAP_116
*1484 TAP_117
*1485 TAP_118
*1486 TAP_119
*1487 TAP_120
*1488 TAP_121
*1489 TAP_122
*1490 TAP_123
*1491 TAP_124
*1492 TAP_125
*1493 TAP_126
*1494 TAP_127
*1495 TAP_128
*1496 TAP_129
*1497 TAP_130
*1498 TAP_131
*1499 TAP_132
*1500 TAP_133
*1501 TAP_134
*1502 TAP_135
*1503 TAP_136
*1504 TAP_137
*1505 TAP_138
*1506 TAP_139
*1507 TAP_140
*1508 TAP_141
*1509 TAP_142
*1510 TAP_143
*1511 TAP_144
*1512 TAP_145
*1513 TAP_146
*1514 TAP_147
*1515 TAP_148
*1516 TAP_149
*1517 TAP_150
*1518 TAP_151
*1519 TAP_152
*1520 TAP_153
*1521 TAP_154
*1522 TAP_155
*1523 TAP_156
*1524 TAP_157
*1525 TAP_158
*1526 TAP_159
*1527 TAP_160
*1528 TAP_161
*1529 TAP_162
*1530 TAP_163
*1531 TAP_164
*1532 TAP_165
*1533 TAP_166
*1534 TAP_167
*1535 TAP_168
*1536 TAP_169
*1537 TAP_170
*1538 TAP_171
*1539 TAP_172
*1540 TAP_173
*1541 TAP_174
*1542 TAP_175
*1543 TAP_176
*1544 TAP_177
*1545 TAP_178
*1546 TAP_179
*1547 TAP_180
*1548 TAP_181
*1549 TAP_182
*1550 TAP_183
*1551 TAP_184
*1552 TAP_185
*1553 TAP_186
*1554 TAP_187
*1555 TAP_188
*1556 TAP_189
*1557 TAP_190
*1558 TAP_191
*1559 TAP_192
*1560 TAP_193
*1561 TAP_194
*1562 TAP_195
*1563 TAP_196
*1564 TAP_197
*1565 TAP_198
*1566 TAP_199
*1567 TAP_200
*1568 TAP_201
*1569 TAP_202
*1570 TAP_203
*1571 TAP_204
*1572 TAP_205
*1573 TAP_206
*1574 TAP_207
*1575 TAP_208
*1576 TAP_209
*1577 TAP_210
*1578 TAP_211
*1579 TAP_212
*1580 TAP_213
*1581 TAP_214
*1582 TAP_215
*1583 TAP_76
*1584 TAP_77
*1585 TAP_78
*1586 TAP_79
*1587 TAP_80
*1588 TAP_81
*1589 TAP_82
*1590 TAP_83
*1591 TAP_84
*1592 TAP_85
*1593 TAP_86
*1594 TAP_87
*1595 TAP_88
*1596 TAP_89
*1597 TAP_90
*1598 TAP_91
*1599 TAP_92
*1600 TAP_93
*1601 TAP_94
*1602 TAP_95
*1603 TAP_96
*1604 TAP_97
*1605 TAP_98
*1606 TAP_99
*1607 _0517_
*1608 _0518_
*1609 _0519_
*1610 _0520_
*1611 _0521_
*1612 _0522_
*1613 _0523_
*1614 _0524_
*1615 _0525_
*1616 _0526_
*1617 _0527_
*1618 _0528_
*1619 _0529_
*1620 _0530_
*1621 _0531_
*1622 _0532_
*1623 _0533_
*1624 _0534_
*1625 _0535_
*1626 _0536_
*1627 _0537_
*1628 _0538_
*1629 _0539_
*1630 _0540_
*1631 _0541_
*1632 _0542_
*1633 _0543_
*1634 _0544_
*1635 _0545_
*1636 _0546_
*1637 _0547_
*1638 _0548_
*1639 _0549_
*1640 _0550_
*1641 _0551_
*1642 _0552_
*1643 _0553_
*1644 _0554_
*1645 _0555_
*1646 _0556_
*1647 _0557_
*1648 _0558_
*1649 _0559_
*1650 _0560_
*1651 _0561_
*1652 _0562_
*1653 _0563_
*1654 _0564_
*1655 _0565_
*1656 _0566_
*1657 _0567_
*1658 _0568_
*1659 _0569_
*1660 _0570_
*1661 _0571_
*1662 _0572_
*1663 _0573_
*1664 _0574_
*1665 _0575_
*1666 _0576_
*1667 _0577_
*1668 _0578_
*1669 _0579_
*1670 _0580_
*1671 _0581_
*1672 _0582_
*1673 _0583_
*1674 _0584_
*1675 _0585_
*1676 _0586_
*1677 _0587_
*1678 _0588_
*1679 _0589_
*1680 _0590_
*1681 _0591_
*1682 _0592_
*1683 _0593_
*1684 _0594_
*1685 _0595_
*1686 _0596_
*1687 _0597_
*1688 _0598_
*1689 _0599_
*1690 _0600_
*1691 _0601_
*1692 _0602_
*1693 _0603_
*1694 _0604_
*1695 _0605_
*1696 _0606_
*1697 _0607_
*1698 _0608_
*1699 _0609_
*1700 _0610_
*1701 _0611_
*1702 _0612_
*1703 _0613_
*1704 _0614_
*1705 _0615_
*1706 _0616_
*1707 _0617_
*1708 _0618_
*1709 _0619_
*1710 _0620_
*1711 _0621_
*1712 _0622_
*1713 _0623_
*1714 _0624_
*1715 _0625_
*1716 _0626_
*1717 _0627_
*1718 _0628_
*1719 _0629_
*1720 _0630_
*1721 _0631_
*1722 _0632_
*1723 _0633_
*1724 _0634_
*1725 _0635_
*1726 _0636_
*1727 _0637_
*1728 _0638_
*1729 _0639_
*1730 _0640_
*1731 _0641_
*1732 _0642_
*1733 _0643_
*1734 _0644_
*1735 _0645_
*1736 _0646_
*1737 _0647_
*1738 _0648_
*1739 _0649_
*1740 _0650_
*1741 _0651_
*1742 _0652_
*1743 _0653_
*1744 _0654_
*1745 _0655_
*1746 _0656_
*1747 _0657_
*1748 _0658_
*1749 _0659_
*1750 _0660_
*1751 _0661_
*1752 _0662_
*1753 _0663_
*1754 _0664_
*1755 _0665_
*1756 _0666_
*1757 _0667_
*1758 _0668_
*1759 _0669_
*1760 _0670_
*1761 _0671_
*1762 _0672_
*1763 _0673_
*1764 _0674_
*1765 _0675_
*1766 _0676_
*1767 _0677_
*1768 _0678_
*1769 _0679_
*1770 _0680_
*1771 _0681_
*1772 _0682_
*1773 _0683_
*1774 _0684_
*1775 _0685_
*1776 _0686_
*1777 _0687_
*1778 _0688_
*1779 _0689_
*1780 _0690_
*1781 _0691_
*1782 _0692_
*1783 _0693_
*1784 _0694_
*1785 _0695_
*1786 _0696_
*1787 _0697_
*1788 _0698_
*1789 _0699_
*1790 _0700_
*1791 _0701_
*1792 _0702_
*1793 _0703_
*1794 _0704_
*1795 _0705_
*1796 _0706_
*1797 _0707_
*1798 _0708_
*1799 _0709_
*1800 _0710_
*1801 _0711_
*1802 _0712_
*1803 _0713_
*1804 _0714_
*1805 _0715_
*1806 _0716_
*1807 _0717_
*1808 _0718_
*1809 _0719_
*1810 _0720_
*1811 _0721_
*1812 _0722_
*1813 _0723_
*1814 _0724_
*1815 _0725_
*1816 _0726_
*1817 _0727_
*1818 _0728_
*1819 _0729_
*1820 _0730_
*1821 _0731_
*1822 _0732_
*1823 _0733_
*1824 _0734_
*1825 _0735_
*1826 _0736_
*1827 _0737_
*1828 _0738_
*1829 _0739_
*1830 _0740_
*1831 _0741_
*1832 _0742_
*1833 _0743_
*1834 _0744_
*1835 _0745_
*1836 _0746_
*1837 _0747_
*1838 _0748_
*1839 _0749_
*1840 _0750_
*1841 _0751_
*1842 _0752_
*1843 _0753_
*1844 _0754_
*1845 _0755_
*1846 _0756_
*1847 _0757_
*1848 _0758_
*1849 _0759_
*1850 _0760_